This summary file is not complete it only contains required information for the OpenFAST
F        Clockwise rotation when looking downwind?
110  Hub height [m] 
UBar   =  12 m/s 
TI(u)  =  7.0123 %
TI(v)  =  7.0123 %
TI(w)  =  7.0123 %
Height Offset =  0 m
Creating a PERIODIC output file.