This summary file is not complete it only contains required information for the OpenFAST
F        Clockwise rotation when looking downwind?
110  Hub height [m] 
UBar   =  25 m/s 
TI(u)  =  5.6137 %
TI(v)  =  5.6137 %
TI(w)  =  5.6137 %
Height Offset =  0 m
Creating a PERIODIC output file.