
This summary file was generated by TurbSim (v2.00.07a-bjj, 14-Jun-2016) on 07-Oct-2025 at 21:00:16.


ERROR:  ReadInputFile:OpenFInpFile:The input file, "TurbSim.inp", was not found.

ABORTING PROGRAM.
