
This summary file was generated by TurbSim (v1.06.00, 21-Sep-2012) on 30-Nov-2025 at 17:57:21.


Runtime Options:

        16  Random seed #1
    RANLUX  Type of random number generator
         F  Output binary HH turbulence parameters?
         F  Output formatted turbulence parameters?
         F  Output AeroDyn HH files?
         F  Output AeroDyn FF files?
         T  Output BLADED FF files?
         T  Output tower data?
         F  Output formatted FF files?
         F  Output coherent turbulence time step file?
         T  Clockwise rotation when looking downwind?
 0 -  NONE  IEC turbulence models scaled to exact specified standard deviation


Turbine/Model Specifications:

        15  Vertical grid-point matrix dimension
        15  Horizontal grid-point matrix dimension
     0.050  Time step [seconds]
    60.000  Analysis time [seconds]
   660.000  Usable output time [seconds]
   100.000  Hub height [m]
   140.000  Grid height [m]
   140.000  Grid width [m]
     0.000  Vertical flow angle [degrees]
     0.000  Horizontal flow angle [degrees]


Meteorological Boundary Conditions:

    IECKAI  IEC Kaimal spectral model
         1  IEC standard: IEC 61400-1 Ed. 3: 2005
         A  IEC turbulence characteristic
    2EWM50  IEC Extreme 50-Year Wind Speed Model
       N/A  IEC Extreme Turbulence Model (ETM) "c" parameter [m/s]
       IEC  Wind profile type
   100.000  Reference height [m]
       N/A  Reference wind speed [m/s]
       N/A  Jet height [m]
       N/A  Power law exponent
     0.030  Surface roughness length [m]


You have requested that the following file(s) be generated:

   60ms_2A.wnd (AeroDyn/BLADED full-field wnd file)
   60ms_2A.twr (Binary tower twr file)


Turbulence Simulation Scaling Parameter Summary:

   Turbulence model used                            =  IEC Kaimal
   Turbulence characteristic                        =  2A
   IEC turbulence type                              =  Extreme 50-Year Wind Speed Model
   Reference wind speed average over 10 minutes     =   42.500 m/s
   Annual wind speed average at hub height          =    8.500 m/s
   IEC standard                                     =  IEC 61400-1 Ed. 3: 2005
   Mean wind speed at hub height                    =   42.500 m/s
   Expected value of turbulence intensity at 15 m/s =   16.000%
   Characteristic value of standard deviation       =    4.675 m/s
   Turbulence scale                                 =   42.000 m
   u-component integral scale                       =  340.200 m
   Coherency scale                                  =  340.200 m
   Characteristic value of hub turbulence intensity =   11.000%
   Gradient Richardson number                       =    0.000

   Wind profile type                                =  Power law on rotor disk, logarithmic elsewhere
   Power law exponent                               =    0.110
   Mean shear across rotor disk                     =    0.056 (m/s)/m
   Assumed rotor diameter                           =  140.000 m
   Surface roughness length                         =    0.030 m

   Number of time steps in the FFT                  =    13300
   Number of time steps output                      =    13266


Mean Flow Angles:

   Vertical   =   0.0 degrees
   Horizontal =   0.0 degrees

Mean Wind Speed Profile:

   Height    Wind Speed   Horizontal Angle  U-comp (X)   V-comp (Y)   W-comp (Z)
     (m)        (m/s)         (degrees)       (m/s)        (m/s)        (m/s)   
   ------    ----------   ----------------  ----------   ----------   ----------
    170.0       45.05            0.00         45.05         0.00         0.00
    160.0       44.76            0.00         44.76         0.00         0.00
    150.0       44.44            0.00         44.44         0.00         0.00
    140.0       44.10            0.00         44.10         0.00         0.00
    130.0       43.74            0.00         43.74         0.00         0.00
    120.0       43.36            0.00         43.36         0.00         0.00
    110.0       42.95            0.00         42.95         0.00         0.00
    100.0       42.50            0.00         42.50         0.00         0.00
     90.0       42.01            0.00         42.01         0.00         0.00
     80.0       41.47            0.00         41.47         0.00         0.00
     70.0       40.86            0.00         40.86         0.00         0.00
     60.0       40.18            0.00         40.18         0.00         0.00
     50.0       39.38            0.00         39.38         0.00         0.00
     40.0       38.43            0.00         38.43         0.00         0.00
     30.0       37.23            0.00         37.23         0.00         0.00
     20.0       35.60            0.00         35.60         0.00         0.00
     10.0       32.99            0.00         32.99         0.00         0.00


Harvested Random Seeds after Generation of the Random Numbers:

     42078557 K1
            0 K2


Hub-Height Simulated Turbulence Statistical Summary:

   Type of Wind        Min (m/s)   Mean (m/s)    Max (m/s)  Sigma (m/s)       TI (%)
   ----------------    ---------   ----------    ---------  -----------       ------
   Longitudinal (u)        28.56        42.50        57.15        4.253       10.007
   Lateral (v)            -13.02         0.00        12.06        3.661        8.614
   Vertical (w)            -8.94         0.00         7.49        2.233        5.255
   U component             28.56        42.50        57.15        4.253       10.007
   V component            -13.02         0.00        12.06        3.661        8.614
   W component             -8.94         0.00         7.49        2.233        5.255
   Horizontal (U&V)        28.62        42.66        57.24        4.227        9.910
   Total                   28.88        42.72        57.24        4.220        9.878

                       Min Reynolds     Mean Reynolds    Max Reynolds    Correlation
   Product             Stress (m/s)^2   Stress (m/s)^2   Stress (m/s)^2  Coefficient
   ----------------    --------------   --------------   --------------  -----------
   u'w'                    -73.155            -0.498            59.501        -0.052
   u'v'                    -99.729            -1.088            92.303        -0.070
   v'w'                    -62.419             0.468            61.305         0.057


   Friction Velocity (Ustar)  =      0.706 m/s
   Maximum Instantaneous TKE  =    113.511 (m/s)^2
   Maximum Instantaneous CTKE =     53.808 (m/s)^2


Grid Point Variance Summary:

   Y-coord  -70.00  -60.00  -50.00  -40.00  -30.00  -20.00  -10.00    0.00   10.00   20.00   30.00   40.00   50.00   60.00   70.00

   Height   Standard deviation at grid points for the u component:
   170.00    4.196   4.153   4.197   4.387   4.117   4.051   4.217   4.251   4.134   4.328   4.323   4.385   4.350   4.308   4.201
   160.00    4.128   4.062   4.083   4.237   4.277   4.143   4.214   4.253   4.167   4.163   4.373   4.321   4.234   4.068   4.084
   150.00    4.210   3.968   3.991   4.208   4.178   4.227   4.209   4.141   4.156   4.105   4.180   4.263   4.182   3.830   3.958
   140.00    4.103   4.066   4.009   4.072   4.132   4.161   4.267   4.228   4.219   4.155   4.141   4.126   3.967   4.024   3.968
   130.00    4.131   3.955   3.803   3.884   3.918   4.161   4.353   4.129   4.264   4.328   4.297   4.201   4.184   4.022   3.943
   120.00    4.111   3.877   3.913   3.951   4.057   4.143   4.257   4.274   4.158   4.216   4.217   4.418   4.270   4.239   4.266
   110.00    4.320   4.105   4.062   4.071   4.080   4.098   4.074   4.230   4.232   4.451   4.445   4.443   4.281   4.333   4.435
   100.00    4.359   4.173   4.137   4.075   4.088   4.179   4.126   4.253   4.442   4.435   4.583   4.704   4.689   4.473   4.389
    90.00    4.479   4.367   4.438   4.216   4.168   4.194   4.225   4.449   4.584   4.584   4.470   4.569   4.587   4.476   4.367
    80.00    4.532   4.432   4.440   4.375   4.270   4.297   4.433   4.659   4.554   4.634   4.657   4.650   4.611   4.420   4.287
    70.00    4.498   4.473   4.350   4.499   4.492   4.582   4.331   4.594   4.607   4.720   4.887   4.653   4.655   4.500   4.478
    60.00    4.651   4.386   4.431   4.539   4.526   4.472   4.488   4.475   4.572   4.675   4.618   4.582   4.537   4.570   4.493
    50.00    4.468   4.327   4.510   4.560   4.681   4.766   4.639   4.588   4.572   4.595   4.540   4.543   4.356   4.454   4.272
    40.00    4.568   4.512   4.508   4.586   4.645   4.851   4.874   4.732   4.613   4.507   4.502   4.397   4.422   4.433   4.220
    30.00    4.581   4.450   4.576   4.554   4.510   4.514   4.786   4.663   4.733   4.587   4.606   4.775   4.593   4.514   4.304

   Height   Standard deviation at grid points for the v component:
   170.00    3.661   3.661   3.661   3.661   3.661   3.661   3.661   3.661   3.661   3.661   3.661   3.661   3.661   3.661   3.661
   160.00    3.661   3.661   3.661   3.661   3.661   3.661   3.661   3.661   3.661   3.661   3.661   3.661   3.661   3.661   3.661
   150.00    3.661   3.661   3.661   3.661   3.661   3.661   3.661   3.661   3.661   3.661   3.661   3.661   3.661   3.661   3.661
   140.00    3.661   3.661   3.661   3.661   3.661   3.661   3.661   3.661   3.661   3.661   3.661   3.661   3.661   3.661   3.661
   130.00    3.661   3.661   3.661   3.661   3.661   3.661   3.661   3.661   3.661   3.661   3.661   3.661   3.661   3.661   3.661
   120.00    3.661   3.661   3.661   3.661   3.661   3.661   3.661   3.661   3.661   3.661   3.661   3.661   3.661   3.661   3.661
   110.00    3.661   3.661   3.661   3.661   3.661   3.661   3.661   3.661   3.661   3.661   3.661   3.661   3.661   3.661   3.661
   100.00    3.661   3.661   3.661   3.661   3.661   3.661   3.661   3.661   3.661   3.661   3.661   3.661   3.661   3.661   3.661
    90.00    3.661   3.661   3.661   3.661   3.661   3.661   3.661   3.661   3.661   3.661   3.661   3.661   3.661   3.661   3.661
    80.00    3.661   3.661   3.661   3.661   3.661   3.661   3.661   3.661   3.661   3.661   3.661   3.661   3.661   3.661   3.661
    70.00    3.661   3.661   3.661   3.661   3.661   3.661   3.661   3.661   3.661   3.661   3.661   3.661   3.661   3.661   3.661
    60.00    3.661   3.661   3.661   3.661   3.661   3.661   3.661   3.661   3.661   3.661   3.661   3.661   3.661   3.661   3.661
    50.00    3.661   3.661   3.661   3.661   3.661   3.661   3.661   3.661   3.661   3.661   3.661   3.661   3.661   3.661   3.661
    40.00    3.661   3.661   3.661   3.661   3.661   3.661   3.661   3.661   3.661   3.661   3.661   3.661   3.661   3.661   3.661
    30.00    3.661   3.661   3.661   3.661   3.661   3.661   3.661   3.661   3.661   3.661   3.661   3.661   3.661   3.661   3.661

   Height   Standard deviation at grid points for the w component:
   170.00    2.233   2.233   2.233   2.233   2.233   2.233   2.233   2.233   2.233   2.233   2.233   2.233   2.233   2.233   2.233
   160.00    2.233   2.233   2.233   2.233   2.233   2.233   2.233   2.233   2.233   2.233   2.233   2.233   2.233   2.233   2.233
   150.00    2.233   2.233   2.233   2.233   2.233   2.233   2.233   2.233   2.233   2.233   2.233   2.233   2.233   2.233   2.233
   140.00    2.233   2.233   2.233   2.233   2.233   2.233   2.233   2.233   2.233   2.233   2.233   2.233   2.233   2.233   2.233
   130.00    2.233   2.233   2.233   2.233   2.233   2.233   2.233   2.233   2.233   2.233   2.233   2.233   2.233   2.233   2.233
   120.00    2.233   2.233   2.233   2.233   2.233   2.233   2.233   2.233   2.233   2.233   2.233   2.233   2.233   2.233   2.233
   110.00    2.233   2.233   2.233   2.233   2.233   2.233   2.233   2.233   2.233   2.233   2.233   2.233   2.233   2.233   2.233
   100.00    2.233   2.233   2.233   2.233   2.233   2.233   2.233   2.233   2.233   2.233   2.233   2.233   2.233   2.233   2.233
    90.00    2.233   2.233   2.233   2.233   2.233   2.233   2.233   2.233   2.233   2.233   2.233   2.233   2.233   2.233   2.233
    80.00    2.233   2.233   2.233   2.233   2.233   2.233   2.233   2.233   2.233   2.233   2.233   2.233   2.233   2.233   2.233
    70.00    2.233   2.233   2.233   2.233   2.233   2.233   2.233   2.233   2.233   2.233   2.233   2.233   2.233   2.233   2.233
    60.00    2.233   2.233   2.233   2.233   2.233   2.233   2.233   2.233   2.233   2.233   2.233   2.233   2.233   2.233   2.233
    50.00    2.233   2.233   2.233   2.233   2.233   2.233   2.233   2.233   2.233   2.233   2.233   2.233   2.233   2.233   2.233
    40.00    2.233   2.233   2.233   2.233   2.233   2.233   2.233   2.233   2.233   2.233   2.233   2.233   2.233   2.233   2.233
    30.00    2.233   2.233   2.233   2.233   2.233   2.233   2.233   2.233   2.233   2.233   2.233   2.233   2.233   2.233   2.233

   Mean standard deviation across all grid points:
      u component:    4.344 m/s
      v component:    3.661 m/s
      w component:    2.233 m/s


U-component (X) statistics from the hub grid point:

   Mean =  42.5000 m/s
   TI   =  10.0071 %


Normalizing Parameters for Binary Data (approximate statistics):

   UBar  =  42.5000 m/s
   TI(u) =  10.0071 %
   TI(v) =   8.6143 %
   TI(w) =   5.2545 %

   Height Offset =   0.0000 m
   Grid Base     =  30.0000 m

Nyquist frequency of turbulent wind field =        10.000 Hz


Processing complete.  4.0312 CPU seconds used.
